-------------------------------------------------------
          Amber 16 PMEMD                              2016
          -------------------------------------------------------

  [-O]verwriting output

File Assignments:

 Here is the input file:

Equilibration with solute restrictions
&cntrl
imin = 0,                           ! No Minimization
nmropt = 0,                         ! No NMR restraints read

! Nature and format of the input
ntx = 5,                            ! Coordinates but no velocities will be rea
irest = 1,                          ! Do not run a new simulation

! Nature and format of the output
ntxo = 1,                           ! rstrt file in ASCII format
ntpr = 500,                         ! inf in output every ntpr steps
ntwr = 500,                         ! rstrt file every ntwr steps
ntwx = 500,                         ! mdcrd file every ntwx steps
ntwv = 0,                           ! mdvel without velocities
ntwe = 0,                           ! Energies and temperatures not written in
idecomp = 0,                        ! No energy decomposition
iwrap = 1,                          ! Coordinates of the restart and mdcrd file

! Frozen or restrained atoms
ibelly = 0,                         ! No frozen atoms
ntr=1,                              ! Harmonic potential restraints
restraint_wt = 30.0,                ! The weight for the positional restraints
restraintmask = ':1-120@N,CA,C,O',  ! restrained residues

! Molecular dynamics
nstlim = 50000,                     ! Number of MD-steps
dt = 0.002,                         ! Time step

! Temperature regulation
ntt = 3,                            ! Langevin thermostat
gamma_ln = 5,                       ! Gamma constant for Langevin
temp0 = 300.0,                      ! Reference T at which the system is to be
tempi = 300.0,                      ! Initial T
ig = -1,                            ! Seed for the RNG

! P and V regulation
ntp = 0,                            ! No pressure control
ntb = 1,                            ! Periodic box for constant V

! SHAKE variables
ntc = 2,                            ! Bonds involving H are constrained
ntf = 2,                            ! Bond interaction involving H are ommited.

cut = 10.0,                         ! Nonbonded cutoff

/
&end

Note: ig = -1. Setting random seed to   445773 based on wallclock time in
      microseconds.

--------------------------------------------------------------------------------
   1.  RESOURCE   USE:
--------------------------------------------------------------------------------

 getting new box info from bottom of inpcrd
 NATOM  =   16335 NTYPES =      18 NBONH =   15379 MBONA  =     963
 NTHETH =    2359 MTHETA =    1293 NPHIH =    4500 MPHIA  =    3265
 NHPARM =       0 NPARM  =       0 NNB   =   30156 NRES   =    4896
 NBONA  =     963 NTHETA =    1293 NPHIA =    3265 NUMBND =      51
 NUMANG =     105 NPTRA  =      41 NATYP =      35 NPHB   =       1
 IFBOX  =       2 NMXRS  =      24 IFCAP =       0 NEXTRA =       0
 NCOPY  =       0

     BOX TYPE: TRUNCATED OCTAHEDRON

--------------------------------------------------------------------------------
   2.  CONTROL  DATA  FOR  THE  RUN
--------------------------------------------------------------------------------

default_name

General flags:
     imin    =       0, nmropt  =       0

Nature and format of input:
     ntx     =       5, irest   =       1, ntrx    =       1

Nature and format of output:
     ntxo    =       1, ntpr    =     500, ntrx    =       1, ntwr    =     500
     iwrap   =       1, ntwx    =     500, ntwv    =       0, ntwe    =       0
     ioutfm  =       1, ntwprt  =       0, idecomp =       0, rbornstat=      0

Potential function:
     ntf     =       2, ntb     =       1, igb     =       0, nsnb    =      25
     ipol    =       0, gbsa    =       0, iesp    =       0
     dielc   =   1.00000, cut     =  10.00000, intdiel =   1.00000

Frozen or restrained atoms:
     ibelly  =       0, ntr     =       1
     restraint_wt =  30.00000

Molecular dynamics:
     nstlim  =     50000, nscm    =         0, nrespa  =         1
     t       =   0.00000, dt      =   0.00200, vlimit  =  -1.00000

Langevin dynamics temperature regulation:
     ig      =  445773
     temp0   = 300.00000, tempi   = 300.00000, gamma_ln=   5.00000

SHAKE:
     ntc     =       2, jfastw  =       0
     tol     =   0.00001

Ewald parameters:
     verbose =       0, ew_type =       0, nbflag  =       1, use_pme =       1
     vdwmeth =       1, eedmeth =       1, netfrc  =       1
     Box X =   62.641   Box Y =   62.641   Box Z =   62.641
     Alpha =  109.471   Beta  =  109.471   Gamma =  109.471
     NFFT1 =   64       NFFT2 =   64       NFFT3 =   64
     Cutoff=   10.000   Tol   =0.100E-04
     Ewald Coefficient =  0.27511
     Interpolation order =    4

    LOADING THE CONSTRAINED ATOMS AS GROUPS

   5.  REFERENCE ATOM COORDINATES

  default_name
     Mask :1-120@N,CA,C,O; matches   476 atoms

--------------------------------------------------------------------------------
   3.  ATOMIC COORDINATES AND VELOCITIES
--------------------------------------------------------------------------------

default_name
 begin time read from input coords =   440.000 ps

 Number of triangulated 3-point waters found:     4775

     Sum of charges from parm topology file =  -0.00000006
     Forcing neutrality...

--------------------------------------------------------------------------------
   4.  RESULTS
 NSTEP =      500   TIME(PS) =     441.000  TEMP(K) =   298.53  PRESS =     0.0
 Etot   =    -38075.2791  EKtot   =      9973.9775  EPtot      =    -48049.2566
 BOND   =       326.0662  ANGLE   =      1061.1602  DIHED      =      1332.3566
 1-4 NB =       457.3357  1-4 EEL =      6332.7841  VDWAALS    =      5588.4836
 EELEC  =    -63315.8102  EHBOND  =         0.0000  RESTRAINT  =       168.3671
 EAMBER (non-restraint)  =    -48217.6238
 ------------------------------------------------------------------------------

      A V E R A G E S   O V E R     100 S T E P S

 NSTEP =    50000   TIME(PS) =     540.000  TEMP(K) =   299.84  PRESS =     0.0
 Etot   =    -38018.6803  EKtot   =     10017.9683  EPtot      =    -48036.6485
 BOND   =       340.7267  ANGLE   =      1036.3102  DIHED      =      1351.5752
 1-4 NB =       454.6109  1-4 EEL =      6331.6603  VDWAALS    =      5381.4997
 EELEC  =    -63096.8981  EHBOND  =         0.0000  RESTRAINT  =       163.8666
 EAMBER (non-restraint)  =    -48200.5151
 ------------------------------------------------------------------------------

      R M S  F L U C T U A T I O N S

 NSTEP =    50000   TIME(PS) =     540.000  TEMP(K) =     2.41  PRESS =     0.0
 Etot   =       143.7248  EKtot   =        80.6763  EPtot      =       106.8153
 BOND   =        14.2119  ANGLE   =        24.1415  DIHED      =        12.3362
 1-4 NB =         7.7112  1-4 EEL =        17.9420  VDWAALS    =       108.7924
 EELEC  =       172.9748  EHBOND  =         0.0000  RESTRAINT  =         7.1656
 EAMBER (non-restraint)  =        99.6496
 ------------------------------------------------------------------------------
